# Run-time options for MNC package and netcdf output
 &MNC_01
# mnc_echo_gvtypes=.FALSE.,
# mnc_use_indir=.FALSE.,
 mnc_use_outdir=.TRUE.,
 mnc_outdir_str='/nobackup1/jml1/exports/f_relrat/f_relrat_',
 mnc_outdir_date=.FALSE.,
 monitor_mnc=.TRUE.,
 snapshot_mnc=.TRUE.,
 timeave_mnc=.TRUE.,
 pickup_read_mnc=.FALSE.,
 pickup_write_mnc=.FALSE.,
 &

